LAMMPS (3 Mar 2020)
###############################################
# LAMMPS script for a polymer
###############################################

###
# Box and units  (use LJ units and periodic boundaries)
###

units lj                 # use lennard-jones (i.e. dimensionless) units
atom_style angle         # atoms with bonds and angles

boundary p p p           # all boundaries are periodic

###
# Pair interactions require lists of neighbours to be calculated
###
neighbor 1.9 bin
neigh_modify every 1 delay 1 check yes

###
# READ "start" data file
###
read_data data.polymer
  orthogonal box = (0 0 0) to (40 40 40)
  reading atoms ...
  400 atoms
  scanning bonds ...
  scanning angles ...
  reading bonds ...
  380 bonds
  reading angles ...
  360 angles

###
# Generate regular RESTART files to store state of simulation
###
restart 5000 polymer.restart

###
# Reset timestep
###
reset_timestep 0

###
# Define groups
###
group all type 1  #(atom type 1 is group 'all')
400 atoms in group all

###
# Dump configurations
###
dump dum1 all custom 1000 dump.lammpstrj id type x y z ix iy iz
# every 1000 time steps, each atom's id, type, x,y,z coords and x,y,z image flages are output.
# image flags count how many times each atom has moved through a periodic boundary

###
# Set up interactions - start with 'soft' potentials
###

## angles
angle_style  cosine
angle_coeff   1  20.0
# this choice gives a polymer with the same persistence length as DNA

## Between bonded atoms
bond_style   harmonic
# For style harmonic, specify:
#   * bond type
#   * K (energy/distance^2)
#   * R0 (distance)
bond_coeff   1   90.0   1.1

## Between non-bonded atoms
pair_style     soft 1.12246152962189
#  pair_coeff for soft, specify 3:
#    * atom type interacting with
#    * atom type
#    * energy
#    * cutoff
pair_coeff * *  100.0 1.12246152962189

###
# Set up fixes
###
variable seed equal 54654651     # a seed for the thermostat

fix 1 all nve                             # NVE integrator
fix 2 all langevin   1.0 1.0 1.0 54654651

##### Output thermodynamic info  (temperature, energy, pressure, etc.) #####
thermo 1000
thermo_style   custom   step  temp  epair  emol  press  vol
############################################################################

##### Output thermodynamic info to file  ###################################
variable t equal step
variable mytemp equal temp
variable myepair equal epair
############################################################################

############################################################################
#### Set up a compute for R_g
compute myRG2compute all gyration
#### and write it to a file
variable RG2 equal c_myRG2compute
############################################################################

###
# set timestep of integrator
###
timestep 0.01

###
# run integration for a number of steps to equilibrate with soft potnentials
###

run 5000
  update every 1 steps, delay 1 steps, check yes
Step Temp E_pair E_mol Press Volume
0            0            0        13.68     -0.21375        64000
Loop time of 0.181167 on 1 procs for 5000 steps with 400 atoms

write_restart DNA.equlilb.restart

###
# Now switch to LJ potential and FENE bonds

## Between bonded atoms
bond_style   fene
special_bonds fene #<=== I M P O R T A N T prevents LJ from being counted twice
# For style FENE, specify:
#   * bond type
#   * K (energy/distance^2)
#   * R0 (distance)
#   * epsilon
#   * sigma
bond_coeff   1    30.0   1.6   1.0   1.0

## Between non-bonded atoms
pair_style      lj/cut 1.12246152962189
pair_modify shift yes        # option to ensure energy is calculated corectly
#  pair_coeff for LJ, specify 4:
#    * atom type interacting with
#    * atom type
#    * energy
#    * mean diameter of the two atom types
#    * cutoff
pair_coeff      1 1 1.0 1.0 1.12246152962189

###
# now do a longer run
###

run 50000
  update every 1 steps, delay 1 steps, check yes
Step Temp E_pair E_mol Press Volume
5000    1.0300421            0    25.517356  -0.12925707        64000
Averages over the last 26 of 51 rows, steps 30000 to 55000:
Temp E_pair E_mol Press Volume
1.00899 0.000597014 19.9946 1.55422e-06 64000
Loop time of 1.81935 on 1 procs for 50000 steps with 400 atoms

#### write a final restart file
write_restart final.restart
